/*---------------------------------------------------------------------------*\
| =========                 |                                                 |
| \\      /  F ield         | OpenFOAM: The Open Source CFD Toolbox           |
|  \\    /   O peration     | Version:  5.x                                   |
|   \\  /    A nd           | Web:      www.OpenFOAM.org                      |
|    \\/     M anipulation  |                                                 |
\*---------------------------------------------------------------------------*/
Build  : 5.x-197d9d3bf20a
Exec   : ideasUnvToFoam cad/backgroundMesh.unv
Date   : Jul 18 2018
Time   : 10:44:42
Host   : "joe-linux"
PID    : 3340
I/O    : uncollated
Case   : /home/joe-linux/Desktop/18_07_11/cases-5.x/ACMIBoundaryWithHeatTransfer
nProcs : 1
sigFpe : Enabling floating point exception trapping (FOAM_SIGFPE).
fileModificationChecking : Monitoring run-time modified files using timeStampMaster (fileModificationSkew 10)
allowSystemOperations : Allowing user-supplied system call operations

// * * * * * * * * * * * * * * * * * * * * * * * * * * * * * * * * * * * * * //
Create time

Processing tag:164
Starting reading units at line 3.
l:1
units:"  SI: Meter (newton)"
unitType:2
Unit factors:
    Length scale       : 1
    Force scale        : 1
    Temperature scale  : 1
    Temperature offset : 273.15


Processing tag:2420
Skipping tag 2420 on line 9
Skipping section at line 9.

Processing tag:2411
Starting reading points at line 20.
Read 11322 points.

Processing tag:2412
Starting reading cells at line 22667.
First occurrence of element type 11 for cell 1 at line 22668
First occurrence of element type 44 for cell 581 at line 24408
First occurrence of element type 115 for cell 8413 at line 40072
Read 7260 cells and 7832 boundary faces.

Sorting boundary faces according to group (patch)

Constructing mesh with non-default patches of size:

--> FOAM Warning : 
    From function Foam::polyMesh::polyMesh(const Foam::IOobject&, const Foam::Xfer<Foam::Field<Foam::Vector<double> > >&, const cellShapeList&, const faceListList&, const wordList&, const wordList&, const Foam::word&, const Foam::word&, const wordList&, bool)
    in file meshes/polyMesh/polyMeshFromShapeMesh.C at line 595
    Found 7832 undefined faces in mesh; adding to default patch.
End

/*---------------------------------------------------------------------------*\
| =========                 |                                                 |
| \\      /  F ield         | OpenFOAM: The Open Source CFD Toolbox           |
|  \\    /   O peration     | Version:  5.x                                   |
|   \\  /    A nd           | Web:      www.OpenFOAM.org                      |
|    \\/     M anipulation  |                                                 |
\*---------------------------------------------------------------------------*/
Build  : 5.x-197d9d3bf20a
Exec   : surfaceFeatureExtract
Date   : Jul 18 2018
Time   : 10:45:10
Host   : "joe-linux"
PID    : 3353
I/O    : uncollated
Case   : /home/joe-linux/Desktop/18_07_11/cases-5.x/ACMIBoundaryWithHeatTransfer
nProcs : 1
sigFpe : Enabling floating point exception trapping (FOAM_SIGFPE).
fileModificationChecking : Monitoring run-time modified files using timeStampMaster (fileModificationSkew 10)
allowSystemOperations : Allowing user-supplied system call operations

// * * * * * * * * * * * * * * * * * * * * * * * * * * * * * * * * * * * * * //
Create time

Reading surfaceFeatureExtractDict

Surface            : "interface.stl"


Feature line extraction is only valid on closed manifold surfaces.
Statistics:
Triangles    : 88
Vertices     : 76
Bounding Box : (0 0 0) (0 0.029999999 0.001)


Constructing feature set from included angle 150
Selecting edges purely based on geometric tests: no
Removing all non-manifold edges (edges with > 2 connected faces) unless they cross multiple regions
Removing all open edges (edges with 1 connected face)

Initial feature set:
    feature points : 0
    feature edges  : 0
    of which
        region edges   : 0
        external edges : 0
        internal edges : 0


Final feature set:
    points : 0
    of which
        convex             : 0
        concave            : 0
        mixed              : 0
        non-feature        : 0
    edges  : 0
    of which
        external edges     : 0
        internal edges     : 0
        flat edges         : 0
        open edges         : 0
        multiply connected : 0

Writing extendedFeatureEdgeMesh to "/home/joe-linux/Desktop/18_07_11/cases-5.x/ACMIBoundaryWithHeatTransfer/constant/extendedFeatureEdgeMesh/interface.extendedFeatureEdgeMesh"

Writing featureEdgeMesh to "/home/joe-linux/Desktop/18_07_11/cases-5.x/ACMIBoundaryWithHeatTransfer/constant/triSurface/interface.eMesh"

Surface            : "regionSTL.stl"


Feature line extraction is only valid on closed manifold surfaces.
Statistics:
Triangles    : 17192
Vertices     : 8598
Bounding Box : (-0.0099999998 0 0) (0.02 0.1 0.001)


Constructing feature set from included angle 150
Selecting edges purely based on geometric tests: no
Removing all non-manifold edges (edges with > 2 connected faces) unless they cross multiple regions
Removing all open edges (edges with 1 connected face)

Initial feature set:
    feature points : 12
    feature edges  : 526
    of which
        region edges   : 526
        external edges : 0
        internal edges : 0


Final feature set:
    points : 520
    of which
        convex             : 10
        concave            : 0
        mixed              : 2
        non-feature        : 508
    edges  : 526
    of which
        external edges     : 525
        internal edges     : 1
        flat edges         : 0
        open edges         : 0
        multiply connected : 0

Writing extendedFeatureEdgeMesh to "/home/joe-linux/Desktop/18_07_11/cases-5.x/ACMIBoundaryWithHeatTransfer/constant/extendedFeatureEdgeMesh/regionSTL.extendedFeatureEdgeMesh"

Writing featureEdgeMesh to "/home/joe-linux/Desktop/18_07_11/cases-5.x/ACMIBoundaryWithHeatTransfer/constant/triSurface/regionSTL.eMesh"

ExecutionTime = 0.07 s  ClockTime = 0 s

End

/*---------------------------------------------------------------------------*\
| =========                 |                                                 |
| \\      /  F ield         | OpenFOAM: The Open Source CFD Toolbox           |
|  \\    /   O peration     | Version:  5.x                                   |
|   \\  /    A nd           | Web:      www.OpenFOAM.org                      |
|    \\/     M anipulation  |                                                 |
\*---------------------------------------------------------------------------*/
Build  : 5.x-197d9d3bf20a
Exec   : snappyHexMesh -overwrite
Date   : Jul 18 2018
Time   : 10:47:16
Host   : "joe-linux"
PID    : 3384
I/O    : uncollated
Case   : /home/joe-linux/Desktop/18_07_11/cases-5.x/ACMIBoundaryWithHeatTransfer
nProcs : 1
sigFpe : Enabling floating point exception trapping (FOAM_SIGFPE).
fileModificationChecking : Monitoring run-time modified files using timeStampMaster (fileModificationSkew 10)
allowSystemOperations : Allowing user-supplied system call operations

// * * * * * * * * * * * * * * * * * * * * * * * * * * * * * * * * * * * * * //
Create time

Create mesh for time = 0

Read mesh in = 0 s

Overall mesh bounding box  : (-0.0115 -0.005 -0.0005) (0.0215 0.105 0.0015)
Relative tolerance         : 1e-06
Absolute matching distance : 1.1486079e-07

Reading refinement surfaces.
Read refinement surfaces in = 0.05 s

Reading refinement shells.
Read refinement shells in = 0 s

Setting refinement level of surface to be consistent with shells.
Checked shell refinement in = 0.05 s

Reading features.
Read edgeMesh regionSTL.eMesh
    points      : 520
    edges       : 526
    boundingBox : (-0.0099999998 0 0) (0.02 0.1 0.001)

Refinement level according to distance to "regionSTL.eMesh" (520 points, 526 edges).
    level 0 for all cells within 0 metre.
Read edgeMesh interface.eMesh
    points      : 0
    edges       : 0
    boundingBox : (0 0 0) (0 0 0)

Refinement level according to distance to "interface.eMesh" (0 points, 0 edges).
    level 0 for all cells within 0 metre.
--> FOAM Warning : 
    From function Foam::treeBoundBox::treeBoundBox(const Foam::UList<Foam::Vector<double> >&)
    in file meshes/treeBoundBox/treeBoundBox.C at line 135
    cannot find bounding box for zero-sized pointField, returning zero
Read features in = 0 s


Determining initial surface intersections
-----------------------------------------

Edge intersection testing:
    Number of edges             : 25696
    Number of edges to retest   : 25696
    Number of intersected edges : 9301
Calculated surface intersections in = 0.06 s

Initial mesh : cells:7260  faces:25696  points:11322
Cells per refinement level:
    0	7260

Adding patches for surface regions
----------------------------------

Patch Type                Region                        
----- ----                ------                        
regionSTL.stl:

1     wall                adiabaticWalls                
2     empty               back                          
3     wall                constWall                     
4     empty               front                         
5     wall                hotWall                       
6     wall                interface                     

connected:

7     wall                connected                     
8     wall                connected_slave               

Added patches in = 0.01 s

Selecting decompositionMethod none
Layer thickness specified as final layer and expansion ratio.

Refinement phase
----------------

Found point (0.001 0.005 0.0005) in cell 309 on processor 0

Feature refinement iteration 0
------------------------------

Marked for refinement due to explicit features             : 0 cells.
Determined cells to refine in = 0.04 s
Selected for feature refinement : 0 cells (out of 7260)
Stopping refining since too few cells selected.


Surface refinement iteration 0
------------------------------

Marked for refinement due to surface intersection          : 4947 cells.
Determined cells to refine in = 0.02 s
Selected for refinement : 4947 cells (out of 7260)
Edge intersection testing:
    Number of edges             : 138184
    Number of edges to retest   : 132029
    Number of intersected edges : 19681
Refined mesh in = 0.27 s
After refinement surface refinement iteration 0 : cells:41889  faces:138184  points:54686
Cells per refinement level:
    0	2313
    1	39576

Surface refinement iteration 1
------------------------------

Marked for refinement due to surface intersection          : 319 cells.
Determined cells to refine in = 0.01 s
Selected for refinement : 319 cells (out of 41889)
Edge intersection testing:
    Number of edges             : 145471
    Number of edges to retest   : 15596
    Number of intersected edges : 20658
Refined mesh in = 0.17 s
After refinement surface refinement iteration 1 : cells:44122  faces:145471  points:57572
Cells per refinement level:
    0	2234
    1	39968
    2	1920

Surface refinement iteration 2
------------------------------

Marked for refinement due to surface intersection          : 2 cells.
Determined cells to refine in = 0.02 s
Selected for refinement : 2 cells (out of 44122)
Edge intersection testing:
    Number of edges             : 145513
    Number of edges to retest   : 188
    Number of intersected edges : 20658
Refined mesh in = 0.16 s
After refinement surface refinement iteration 2 : cells:44136  faces:145513  points:57586
Cells per refinement level:
    0	2232
    1	39984
    2	1920

Surface refinement iteration 3
------------------------------

Marked for refinement due to surface intersection          : 0 cells.
Determined cells to refine in = 0.01 s
Selected for refinement : 0 cells (out of 44136)
Stopping refining since too few cells selected.


Removing mesh beyond surface intersections
------------------------------------------

Found point (0.001 0.005 0.0005) in global region 1 out of 2 regions.
Keeping all cells in region 1 containing point (0.001 0.005 0.0005)
Selected for keeping : 40576 cells.
Edge intersection testing:
    Number of edges             : 133240
    Number of edges to retest   : 2112
    Number of intersected edges : 20658

Shell refinement iteration 0
----------------------------

Marked for refinement due to distance to explicit features : 0 cells.
Marked for refinement due to refinement shells             : 0 cells.
Determined cells to refine in = 0.87 s
Selected for internal refinement : 1008 cells (out of 40576)
Edge intersection testing:
    Number of edges             : 155431
    Number of edges to retest   : 33028
    Number of intersected edges : 21804
Refined mesh in = 0.2 s
After refinement shell refinement iteration 0 : cells:47632  faces:155431  points:60508
Cells per refinement level:
    0	0
    1	37648
    2	9984

Shell refinement iteration 1
----------------------------

Marked for refinement due to distance to explicit features : 0 cells.
Marked for refinement due to refinement shells             : 0 cells.
Determined cells to refine in = 0.03 s
Selected for internal refinement : 260 cells (out of 47632)
Edge intersection testing:
    Number of edges             : 161107
    Number of edges to retest   : 11913
    Number of intersected edges : 22188
Refined mesh in = 0.19 s
After refinement shell refinement iteration 1 : cells:49452  faces:161107  points:62546
Cells per refinement level:
    0	0
    1	37388
    2	12064

Shell refinement iteration 2
----------------------------

Marked for refinement due to distance to explicit features : 0 cells.
Marked for refinement due to refinement shells             : 0 cells.
Determined cells to refine in = 0.02 s
Selected for internal refinement : 0 cells (out of 49452)
Stopping refining since too few cells selected.


Dangling coarse cells refinement iteration 0
--------------------------------------------

Determined cells to refine in = 0 s
Selected for refinement : 0 cells (out of 49452)
Stopping refining since too few cells selected.


Dangling coarse cells refinement iteration 0
--------------------------------------------

Determined cells to refine in = 0.01 s
Selected for refinement : 0 cells (out of 49452)
Stopping refining since too few cells selected.


Splitting mesh at surface intersections
---------------------------------------

Introducing baffles for 22188 faces that are intersected by the surface.

Edge intersection testing:
    Number of edges             : 182815
    Number of edges to retest   : 163417
    Number of intersected edges : 33598
Created baffles in = 0.31 s


After introducing baffles : cells:49452  faces:182815  points:62546
Cells per refinement level:
    0	0
    1	37388
    2	12064

Introducing baffles to block off problem cells
----------------------------------------------

markFacesOnProblemCells : marked 2485 additional internal faces to be converted into baffles.
Analyzed problem cells in = 0.11 s


Introducing baffles to delete problem cells.

Edge intersection testing:
    Number of edges             : 185300
    Number of edges to retest   : 11144
    Number of intersected edges : 33598
Created baffles in = 0.17 s


After introducing baffles : cells:49452  faces:185300  points:62546
Cells per refinement level:
    0	0
    1	37388
    2	12064

Remove unreachable sections of mesh
-----------------------------------

Keeping all cells in region 3 containing point (0.001 0.005 0.0005)
Selected for keeping : 23524 cells.
Edge intersection testing:
    Number of edges             : 81804
    Number of edges to retest   : 0
    Number of intersected edges : 11890
Split mesh in = 0.96 s


After subsetting : cells:23524  faces:81804  points:35090
Cells per refinement level:
    0	0
    1	17668
    2	5856

Introducing zones for interfaces
--------------------------------

Surface : connected
    faceZone : connected
    cellZone : 
Walking from location-in-mesh (0.001 0.005 0.0005) to assign cellZones - crossing a faceZone face changes cellZone

Found point (0.001 0.005 0.0005) in global region 1 out of 2 regions.
Detected 480 free-standing zone faces
Protected from visiting 0 non-manifold edges

Split 480 free-standing zone faces into 1 disconnected regions with size (negative denotes wrong orientation) :
    0	480

Protected from visiting 0 non-manifold edges

FaceZones:
    connected	size:480

Edge intersection testing:
    Number of edges             : 81804
    Number of edges to retest   : 0
    Number of intersected edges : 11890

Handling cells with snap problems
---------------------------------

Introducing baffles for 11890 faces that are intersected by the surface.

Edge intersection testing:
    Number of edges             : 81804
    Number of edges to retest   : 44084
    Number of intersected edges : 11890
Created baffles in = 0.6 s


After introducing baffles : cells:23524  faces:81804  points:35090
Cells per refinement level:
    0	0
    1	17668
    2	5856

Introducing baffles to block off problem cells
----------------------------------------------

markFacesOnProblemCells : marked 0 additional internal faces to be converted into baffles.
Analyzed problem cells in = 0.04 s


Introducing baffles to delete problem cells.

Edge intersection testing:
    Number of edges             : 81804
    Number of edges to retest   : 0
    Number of intersected edges : 11890
Created baffles in = 0.06 s


After introducing baffles : cells:23524  faces:81804  points:35090
Cells per refinement level:
    0	0
    1	17668
    2	5856

Remove unreachable sections of mesh
-----------------------------------

Keeping all cells in region 0 containing point (0.001 0.005 0.0005)
Selected for keeping : 23524 cells.
Edge intersection testing:
    Number of edges             : 81804
    Number of edges to retest   : 0
    Number of intersected edges : 11890
Split mesh in = 0.45 s


After subsetting : cells:23524  faces:81804  points:35090
Cells per refinement level:
    0	0
    1	17668
    2	5856

Merge free-standing baffles
---------------------------

freeStandingBaffles : detected 0 free-standing baffles out of 0

Detected free-standing baffles : 0
Merged free-standing baffles in = 0.02 s


dupNonManifoldPoints : Found : 0 non-manifold points (out of 35090)
Edge intersection testing:
    Number of edges             : 81804
    Number of edges to retest   : 0
    Number of intersected edges : 11890
Detected unsplittable baffles : 0

Merge refined boundary faces
----------------------------

Merging 0 sets of faces.

No faces merged ...

Merging all points on surface that
- are used by only two boundary faces and
- make an angle with a cosine of more than 0.70710678.

No straight edges simplified and no points removed ...
Refined mesh : cells:23524  faces:81804  points:35090
Cells per refinement level:
    0	0
    1	17668
    2	5856
Writing mesh to time constant
Wrote mesh in = 0.17 s.
Mesh refined in = 4.91 s.

Morphing phase
--------------

Converting zoned faces into baffles ...
For zone connected found patches connected and connected_slave
Edge intersection testing:
    Number of edges             : 82284
    Number of edges to retest   : 4088
    Number of intersected edges : 12370
Created 480 baffles in = 0.08 s


Surface : connected
    faces to become baffle : 960
    points to duplicate    : 605
dupNonManifoldPoints : Found : 605 non-manifold points (out of 35090)
Edge intersection testing:
    Number of edges             : 82284
    Number of edges to retest   : 0
    Number of intersected edges : 12370

Snapping to features in 4 iterations ...
Constructing mesh displacer ...
Using mesh parameters 
{
    maxNonOrtho     180;
    maxBoundarySkewness 20;
    maxInternalSkewness 4;
    maxConcave      80;
    minVol          1e-13;
    minTetQuality   1e-15;
    minArea         -1;
    minTwist        0.02;
    minDeterminant  0.001;
    minFaceWeight   0.02;
    minVolRatio     0.01;
    minTriangleTwist -1;
    relaxed
    {
        maxNonOrtho     180;
    }
    nSmoothScale    4;
    errorReduction  0.75;
}


Checking initial mesh ...
Checking faces in error :
    faces with face pyramid volume < 1e-13                 : 0
    faces with face-decomposition tet quality < 1e-15      : 0
    faces with concavity > 80  degrees                     : 0
    faces with skewness > 4   (internal) or 20  (boundary) : 0
    faces with interpolation weights (0..1)  < 0.02        : 0
    faces with volume ratio of neighbour cells < 0.01      : 0
    faces with face twist < 0.02                           : 0
    faces on cells with determinant < 0.001                : 0
Detected 0 illegal faces (concave, zero area or negative cell pyramid volume)
Checked initial mesh in = 0.19 s


Smoothing patch points ...
Smoothing iteration 0
Found 1210 non-manifold point(s).

Scaling iteration 0
Moving mesh using displacement scaling : min:1  max:1
Correcting 2-D mesh motion--> FOAM Warning : 
    From function void Foam::twoDPointCorrector::calcAddressing() const
    in file twoDPointCorrector/twoDPointCorrector.C at line 151
    the number of vertices in the geometry is odd - this should not be the case for a 2-D case. Please check the geometry.
--> FOAM Warning : 
    From function void Foam::twoDPointCorrector::calcAddressing() const
    in file twoDPointCorrector/twoDPointCorrector.C at line 160
    The number of points in the mesh is not equal to twice the number of edges normal to the plane - this may be OK only for wedge geometries.
    Please check the geometry or adjust the orthogonality tolerance.

Number of normal edges: 24946 number of points: 35695
 ...done
Checking faces in error :
    faces with face pyramid volume < 1e-13                 : 0
    faces with face-decomposition tet quality < 1e-15      : 0
    faces with concavity > 80  degrees                     : 0
    faces with skewness > 4   (internal) or 20  (boundary) : 0
    faces with interpolation weights (0..1)  < 0.02        : 0
    faces with volume ratio of neighbour cells < 0.01      : 0
    faces with face twist < 0.02                           : 0
    faces on cells with determinant < 0.001                : 0
Successfully moved mesh

Smoothing iteration 1
Found 0 non-manifold point(s).

Scaling iteration 0
Moving mesh using displacement scaling : min:1  max:1
Correcting 2-D mesh motion ...done
Checking faces in error :
    faces with face pyramid volume < 1e-13                 : 0
    faces with face-decomposition tet quality < 1e-15      : 0
    faces with concavity > 80  degrees                     : 0
    faces with skewness > 4   (internal) or 20  (boundary) : 0
    faces with interpolation weights (0..1)  < 0.02        : 0
    faces with volume ratio of neighbour cells < 0.01      : 0
    faces with face twist < 0.02                           : 0
    faces on cells with determinant < 0.001                : 0
Successfully moved mesh

Smoothing iteration 2
Found 0 non-manifold point(s).

Scaling iteration 0
Moving mesh using displacement scaling : min:1  max:1
Correcting 2-D mesh motion ...done
Checking faces in error :
    faces with face pyramid volume < 1e-13                 : 0
    faces with face-decomposition tet quality < 1e-15      : 0
    faces with concavity > 80  degrees                     : 0
    faces with skewness > 4   (internal) or 20  (boundary) : 0
    faces with interpolation weights (0..1)  < 0.02        : 0
    faces with volume ratio of neighbour cells < 0.01      : 0
    faces with face twist < 0.02                           : 0
    faces on cells with determinant < 0.001                : 0
Successfully moved mesh

Smoothing iteration 3
Found 0 non-manifold point(s).

Scaling iteration 0
Moving mesh using displacement scaling : min:1  max:1
Correcting 2-D mesh motion ...done
Checking faces in error :
    faces with face pyramid volume < 1e-13                 : 0
    faces with face-decomposition tet quality < 1e-15      : 0
    faces with concavity > 80  degrees                     : 0
    faces with skewness > 4   (internal) or 20  (boundary) : 0
    faces with interpolation weights (0..1)  < 0.02        : 0
    faces with volume ratio of neighbour cells < 0.01      : 0
    faces with face twist < 0.02                           : 0
    faces on cells with determinant < 0.001                : 0
Successfully moved mesh

Patch points smoothed in = 0.6 s



Morph iteration 0
-----------------
Calculating patchDisplacement as distance to nearest surface point ...
Wanted displacement : average:6.19774e-05 min:0 max:0.00026971281
Calculated surface displacement in = 0.01 s


Detecting near surfaces ...
Overriding nearest with intersection of close gaps at 0 out of 2848 points.
Overriding displacement on features :
   implicit features    : false
   explicit features    : true
   multi-patch features : true

--> FOAM Warning : 
    From function Foam::treeBoundBox::treeBoundBox(const Foam::UList<Foam::Vector<double> >&)
    in file meshes/treeBoundBox/treeBoundBox.C at line 135
    cannot find bounding box for zero-sized pointField, returning zero
Detected 0 baffle edges out of 4920 edges.
Initially selected 35 points out of 2848 for reverse attraction.
Selected 105 points out of 2848 for reverse attraction.
Removing constraints near multi-patch points : changed 0 points
Stringing feature edges : changed 0 points
Attraction:
     linear   : max:(-0.00026971281 0 -1.0842022e-19) avg:(-9.5218598e-08 -1.9219573e-07 8.8390622e-12)
     feature  : max:(0.00018174208 -0.00015213795 -0.0005) avg:(-1.2334636e-07 1.7421929e-08 -3.5112353e-07)
Feature analysis : total master points:2848 attraction to :
    feature point   : 0
    feature edge    : 35
    nearest surface : 0
    rest            : 2813

Smoothing displacement ...
Iteration 0
Iteration 10
Iteration 20
Iteration 30
Iteration 40
Iteration 50
Iteration 60
Iteration 70
Iteration 80
Iteration 90
Iteration 100
Iteration 110
Iteration 120
Iteration 130
Iteration 140
Displacement smoothed in = 0.32 s


Moving mesh ...

Iteration 0
Moving mesh using displacement scaling : min:1  max:1
Correcting 2-D mesh motion ...done
Checking faces in error :
    faces with face pyramid volume < 1e-13                 : 0
    faces with face-decomposition tet quality < 1e-15      : 0
    faces with concavity > 80  degrees                     : 0
    faces with skewness > 4   (internal) or 20  (boundary) : 0
    faces with interpolation weights (0..1)  < 0.02        : 0
    faces with volume ratio of neighbour cells < 0.01      : 0
    faces with face twist < 0.02                           : 0
    faces on cells with determinant < 0.001                : 0
Successfully moved mesh
Moved mesh in = 0.15 s



Morph iteration 1
-----------------
Calculating patchDisplacement as distance to nearest surface point ...
Wanted displacement : average:4.8250384e-05 min:0 max:0.00024036958
Calculated surface displacement in = 0.01 s


Detecting near surfaces ...
Overriding nearest with intersection of close gaps at 0 out of 2848 points.
Overriding displacement on features :
   implicit features    : false
   explicit features    : true
   multi-patch features : true

Detected 0 baffle edges out of 4920 edges.
Initially selected 35 points out of 2848 for reverse attraction.
Selected 105 points out of 2848 for reverse attraction.
Removing constraints near multi-patch points : changed 0 points
Stringing feature edges : changed 0 points
Attraction:
     linear   : max:(-0.00024036958 0 -1.0842022e-19) avg:(-1.1390524e-07 -1.5954382e-07 8.8390622e-12)
     feature  : max:(-0.0001361303 -0.00014231883 -0.0005) avg:(-1.2806727e-07 1.6420155e-08 -3.5112353e-07)
Feature analysis : total master points:2848 attraction to :
    feature point   : 0
    feature edge    : 35
    nearest surface : 0
    rest            : 2813

Smoothing displacement ...
Iteration 0
Iteration 10
Iteration 20
Iteration 30
Iteration 40
Iteration 50
Iteration 60
Iteration 70
Iteration 80
Iteration 90
Iteration 100
Iteration 110
Iteration 120
Iteration 130
Iteration 140
Displacement smoothed in = 0.32 s


Moving mesh ...

Iteration 0
Moving mesh using displacement scaling : min:1  max:1
Correcting 2-D mesh motion ...done
Checking faces in error :
    faces with face pyramid volume < 1e-13                 : 0
    faces with face-decomposition tet quality < 1e-15      : 0
    faces with concavity > 80  degrees                     : 0
    faces with skewness > 4   (internal) or 20  (boundary) : 0
    faces with interpolation weights (0..1)  < 0.02        : 0
    faces with volume ratio of neighbour cells < 0.01      : 0
    faces with face twist < 0.02                           : 0
    faces on cells with determinant < 0.001                : 0
Successfully moved mesh
Moved mesh in = 0.15 s



Morph iteration 2
-----------------
Calculating patchDisplacement as distance to nearest surface point ...
Wanted displacement : average:2.7245279e-05 min:0 max:0.00016291292
Calculated surface displacement in = 0.01 s


Detecting near surfaces ...
Overriding nearest with intersection of close gaps at 0 out of 2848 points.
Overriding displacement on features :
   implicit features    : false
   explicit features    : true
   multi-patch features : true

Detected 0 baffle edges out of 4920 edges.
Initially selected 35 points out of 2848 for reverse attraction.
Selected 105 points out of 2848 for reverse attraction.
Removing constraints near multi-patch points : changed 0 points
Stringing feature edges : changed 0 points
Attraction:
     linear   : max:(-0.00016291292 0 -1.0842022e-19) avg:(-1.0528913e-07 -1.0049649e-07 8.8390622e-12)
     feature  : max:(-6.8067153e-05 -0.00010674184 -0.0005) avg:(-1.0513737e-07 1.2402213e-08 -3.5112353e-07)
Feature analysis : total master points:2848 attraction to :
    feature point   : 0
    feature edge    : 35
    nearest surface : 0
    rest            : 2813

Smoothing displacement ...
Iteration 0
Iteration 10
Iteration 20
Iteration 30
Iteration 40
Iteration 50
Iteration 60
Iteration 70
Iteration 80
Iteration 90
Iteration 100
Iteration 110
Iteration 120
Iteration 130
Iteration 140
Displacement smoothed in = 0.32 s


Moving mesh ...

Iteration 0
Moving mesh using displacement scaling : min:1  max:1
Correcting 2-D mesh motion ...done
Checking faces in error :
    faces with face pyramid volume < 1e-13                 : 0
    faces with face-decomposition tet quality < 1e-15      : 0
    faces with concavity > 80  degrees                     : 0
    faces with skewness > 4   (internal) or 20  (boundary) : 0
    faces with interpolation weights (0..1)  < 0.02        : 0
    faces with volume ratio of neighbour cells < 0.01      : 0
    faces with face twist < 0.02                           : 0
    faces on cells with determinant < 0.001                : 0
Successfully moved mesh
Moved mesh in = 0.14 s



Morph iteration 3
-----------------
Calculating patchDisplacement as distance to nearest surface point ...
Wanted displacement : average:1.0812109e-05 min:0 max:6.1738645e-05
Calculated surface displacement in = 0.01 s


Detecting near surfaces ...
Overriding nearest with intersection of close gaps at 0 out of 2848 points.
Overriding displacement on features :
   implicit features    : false
   explicit features    : true
   multi-patch features : true

Detected 0 baffle edges out of 4920 edges.
Initially selected 35 points out of 2848 for reverse attraction.
Selected 105 points out of 2848 for reverse attraction.
Removing constraints near multi-patch points : changed 0 points
Stringing feature edges : changed 0 points
Attraction:
     linear   : max:(-6.1738645e-05 0 1.0842022e-19) avg:(-2.1159066e-08 -2.8284103e-08 8.8390622e-12)
     feature  : max:(-1.7017256e-05 -4.670108e-05 -0.0005) avg:(-4.6592153e-08 5.4586297e-09 -3.5112353e-07)
Feature analysis : total master points:2848 attraction to :
    feature point   : 0
    feature edge    : 35
    nearest surface : 0
    rest            : 2813

--> FOAM Warning : Displacement (0 6.7762636e-21 4.7497451e-11) at mesh point 11709 coord (-0.0094888046 4.7561601e-05 0.001) points through the surrounding patch faces
Smoothing displacement ...
Iteration 0
Iteration 10
Iteration 20
Iteration 30
Iteration 40
Iteration 50
Iteration 60
Iteration 70
Iteration 80
Iteration 90
Iteration 100
Iteration 110
Iteration 120
Iteration 130
Iteration 140
Displacement smoothed in = 0.31 s


Moving mesh ...

Iteration 0
Moving mesh using displacement scaling : min:1  max:1
Correcting 2-D mesh motion ...done
Checking faces in error :
    faces with face pyramid volume < 1e-13                 : 0
    faces with face-decomposition tet quality < 1e-15      : 0
    faces with concavity > 80  degrees                     : 0
    faces with skewness > 4   (internal) or 20  (boundary) : 0
    faces with interpolation weights (0..1)  < 0.02        : 0
    faces with volume ratio of neighbour cells < 0.01      : 0
    faces with face twist < 0.02                           : 0
    faces on cells with determinant < 0.001                : 0
Successfully moved mesh
Moved mesh in = 0.15 s


Repatching faces according to nearest surface ...
Repatched 0 faces in = 0.01 s


Edge intersection testing:
    Number of edges             : 82284
    Number of edges to retest   : 76775
    Number of intersected edges : 12370
Merging 0 sets of faces.

No faces merged ...

Merging all points on surface that
- are used by only two boundary faces and
- make an angle with a cosine of more than 0.91354546.

No straight edges simplified and no points removed ...

Removing zero-sized patches:
    defaultFaces type patch at position 0

Snapped mesh : cells:23524  faces:82284  points:35695
Cells per refinement level:
    0	0
    1	17668
    2	5856
Writing mesh to time constant
Wrote mesh in = 0.18 s.
Mesh snapped in = 2.96 s.
Checking final mesh ...
Checking faces in error :
    faces with face pyramid volume < 1e-13                 : 0
    faces with face-decomposition tet quality < 1e-15      : 0
    faces with concavity > 80  degrees                     : 0
    faces with skewness > 4   (internal) or 20  (boundary) : 0
    faces with interpolation weights (0..1)  < 0.02        : 0
    faces with volume ratio of neighbour cells < 0.01      : 0
    faces with face twist < 0.02                           : 0
    faces on cells with determinant < 0.001                : 0
Finished meshing without any errors
Finished meshing in = 8.16 s.
End

/*---------------------------------------------------------------------------*\
| =========                 |                                                 |
| \\      /  F ield         | OpenFOAM: The Open Source CFD Toolbox           |
|  \\    /   O peration     | Version:  5.x                                   |
|   \\  /    A nd           | Web:      www.OpenFOAM.org                      |
|    \\/     M anipulation  |                                                 |
\*---------------------------------------------------------------------------*/
Build  : 5.x-197d9d3bf20a
Exec   : flattenMesh
Date   : Jul 18 2018
Time   : 10:48:51
Host   : "joe-linux"
PID    : 3397
I/O    : uncollated
Case   : /home/joe-linux/Desktop/18_07_11/cases-5.x/ACMIBoundaryWithHeatTransfer
nProcs : 1
sigFpe : Enabling floating point exception trapping (FOAM_SIGFPE).
fileModificationChecking : Monitoring run-time modified files using timeStampMaster (fileModificationSkew 10)
allowSystemOperations : Allowing user-supplied system call operations

// * * * * * * * * * * * * * * * * * * * * * * * * * * * * * * * * * * * * * //
Create time

Create polyMesh for time = 0

bounding box: min = (-0.0099999998 -1.1269896e-19 -1.1817804e-17) max = (0.02 0.1 0.001) metres.
--> FOAM Warning : 
    From function void Foam::twoDPointCorrector::calcAddressing() const
    in file twoDPointCorrector/twoDPointCorrector.C at line 151
    the number of vertices in the geometry is odd - this should not be the case for a 2-D case. Please check the geometry.
--> FOAM Warning : 
    From function void Foam::twoDPointCorrector::calcAddressing() const
    in file twoDPointCorrector/twoDPointCorrector.C at line 160
    The number of points in the mesh is not equal to twice the number of edges normal to the plane - this may be OK only for wedge geometries.
    Please check the geometry or adjust the orthogonality tolerance.

Number of normal edges: 24434 number of points: 35695
Writing points into directory "/home/joe-linux/Desktop/18_07_11/cases-5.x/ACMIBoundaryWithHeatTransfer/constant/polyMesh"

End

/*---------------------------------------------------------------------------*\
| =========                 |                                                 |
| \\      /  F ield         | OpenFOAM: The Open Source CFD Toolbox           |
|  \\    /   O peration     | Version:  5.x                                   |
|   \\  /    A nd           | Web:      www.OpenFOAM.org                      |
|    \\/     M anipulation  |                                                 |
\*---------------------------------------------------------------------------*/
Build  : 5.x-197d9d3bf20a
Exec   : extrudeMesh
Date   : Jul 18 2018
Time   : 10:49:27
Host   : "joe-linux"
PID    : 3406
I/O    : uncollated
Case   : /home/joe-linux/Desktop/18_07_11/cases-5.x/ACMIBoundaryWithHeatTransfer
nProcs : 1
sigFpe : Enabling floating point exception trapping (FOAM_SIGFPE).
fileModificationChecking : Monitoring run-time modified files using timeStampMaster (fileModificationSkew 10)
allowSystemOperations : Allowing user-supplied system call operations

// * * * * * * * * * * * * * * * * * * * * * * * * * * * * * * * * * * * * * //
Create time

Create mesh for time = 0

Selecting extrudeModel linearNormal
Extruding from patch using model linearNormal
Flipping normals before extruding
Not collapsing any edges after extrusion

Extruding patches 1(front) on mesh "/home/joe-linux/Desktop/18_07_11/cases-5.x/ACMIBoundaryWithHeatTransfer"

Create mesh for time = 0

Adding overall 0 processor patches.
Testing:"/home/joe-linux/Desktop/18_07_11/cases-5.x/ACMIBoundaryWithHeatTransfer/system/fvSchemes"
Mesh bounding box : (-0.0099999998 -8.1962882e-20 -0.004) (0.02 0.1 0.001)
        with span : (0.029999999 0.1 0.005)
Merge distance    : 0

Writing mesh to "/home/joe-linux/Desktop/18_07_11/cases-5.x/ACMIBoundaryWithHeatTransfer/constant/region0"

End

